version 2
run lstopo-0-20201130-18:10:55-14292
attr configname lstopo
attr datetime 20201130-18:10:55
attr experiment lstopo
attr inifile omnetpp.ini
attr iterationvars ""
attr iterationvarsf ""
attr measurement ""
attr network networks.lstopo
attr processid 14292
attr repetition 0
attr replication #0
attr resultdir results
attr runnumber 0
attr seedset 0
param lstopo.leafs[0].nodeName "\"leaf1\""
param lstopo.leafs[1].nodeName "\"leaf2\""
param lstopo.leafs[2].nodeName "\"leaf3\""
param lstopo.leafs[3].nodeName "\"leaf4\""
param lstopo.spines[0].nodeName "\"spine1\""
param lstopo.spines[1].nodeName "\"spine2\""
param **.appType "\"App\""
param **.app.packetLength "4096 bytes"

vector 0 lstopo.spines[0].app endToEndDelay:vector ETV
attr interpolationmode none
attr title "end-to-end delay of arrived packets, vector"
attr unit s
vector 1 lstopo.spines[1].app endToEndDelay:vector ETV
attr interpolationmode none
attr title "end-to-end delay of arrived packets, vector"
attr unit s
vector 2 lstopo.leafs[1].app endToEndDelay:vector ETV
attr interpolationmode none
attr title "end-to-end delay of arrived packets, vector"
attr unit s
vector 3 lstopo.leafs[2].app endToEndDelay:vector ETV
attr interpolationmode none
attr title "end-to-end delay of arrived packets, vector"
attr unit s
0	3	0.795874504566	0
0	22	1.346922991236	0
0	109	2.915819108859	0
0	129	4.051758050569	0
0	207	4.789585342325	0
0	326	7.115936404019	0
0	332	7.334817000526	0
0	357	7.436961882051	0
0	375	8.149545475384	0
0	378	8.16973560353	0
0	384	8.502145844494	0
0	398	8.628534480919	0
0	401	8.694831882401	0
0	437	9.527675398467	0
0	440	9.853015813996	0
1	6	0.898560388484	0
1	25	1.383688552206	0
1	76	2.037571119427	0
1	132	4.077885377369	0
1	204	4.7195800794	0
1	221	5.165098574451	0
1	272	6.223932705939	0
1	275	6.399846251365	0
1	329	7.271762104991	0
1	381	8.358031485869	0
1	419	8.803450947789	0
2	19	1.256196294047	0.000265536
2	36	1.574552434889	0.000265536
2	145	4.172806520738	0.000265536
2	186	4.416855011475	0.000265536
2	243	5.376402988843	0.000265536
2	286	6.765445678634	0.000265536
2	343	7.393387259625	0.000265536
2	395	8.513201625379	0.000265536
2	470	10.637438822381	0.000265536
2	481	10.657751281177	0.000265536
3	51	1.860002516075	0.000398304
3	62	1.951810871884	0.000265536
3	73	1.972236460283	0.000265536
3	91	2.271580512318	0.000398304
3	106	2.913289684996	0.000398304
3	126	3.532219144623	0.000398304
3	160	4.30305380309	0.000398304
3	175	4.322022372291	0.000398304
3	201	4.484158861737	0.000398304
3	218	5.122406388959	0.000265536
3	232	5.184521679425	0.000265536
3	254	5.420728385508	0.000265536
3	269	5.872830445733	0.000265536
3	301	6.813072235951	0.000398304
3	312	6.930656859085	0.000265536
3	323	7.047612268877	0.000265536
3	354	7.429168112251	0.000265536
3	372	7.789936310022	0.000398304
3	416	8.718414806923	0.000398304
3	434	9.026829647021	0.000398304
3	455	9.884725288095	0.000398304
